458417,'PSS2A', 1, -3.288358321926557, 2.0472261910855885, 7.314569370698333, 2.23323774330507, 0.9624291384190755, -5.595423377702675/
617486,'PSS2A', 34, -3.288358321926557, 2.0472261910855885, 7.314569370698333, 2.23323774330507, 0.9624291384190755, -5.595423377702675/
199346,'GENSAL', 1,-3.8301, 1.14833, 7.746, -2.222, 1.2334, -3.444, -0.122, 1.3, -1.291, -1.603, -0.91902, 0.97/
741902,'GENSAL', 4,-3.8301, 1.14833, 7.746, -2.222, 1.2334, -3.444, -0.122, 1.3, -1.291, -1.603, -0.91902, 0.97/
514025,'GENSAL', 6,-3.8301, 1.14833, 7.746, -2.222, 1.2334, -3.444, -0.122, 1.3, -1.291, -1.603, -0.91902, 0.97/
458417,'GENSAL', 2,-3.8301, 1.14833, 7.746, -2.222, 1.2334, -3.444, -0.122, 1.3, -1.291, -1.603, -0.91902, 0.97/
133406,'GENSAL', 11,-3.8301, 1.14833, 7.746, -2.222, 1.2334, -3.444, -0.122, 1.3, -1.291, -1.603, -0.91902, 0.97/
617486,'GENSAL', 11,-3.8301, 1.14833, 7.746, -2.222, 1.2334, -3.444, -0.122, 1.3, -1.291, -1.603, -0.91902, 0.97/
133406,/
741902,/
