874951,'IEEET1', 60, -2.966641601743028, -2.187000058332849, -1.9754697759324014, 0.36286226601178484, 4.751346616862325, 1.8332957229626619, 5.029295868273902, -8.383388556779298, 5.9038771046120395, -9.509783104541444, -3.6787403661129776, -7.283052872988327, -9.955925567117227, 4.756860095368431/
874951,'GENSAL', 2,-4.03, -3.57, 5.82799, -2.0, 7.253, -0.6, -1.9397, 1.991, 5.32, -2.9, 2.9, 1.98/
628046,'GENSAL', 10,-4.03, -3.57, 5.82799, -2.0, 7.253, -0.6, -1.9397, 1.991, 5.32, -2.9, 2.9, 1.98/
637045,'GENSAL', 9,-4.03, -3.57, 5.82799, -2.0, 7.253, -0.6, -1.9397, 1.991, 5.32, -2.9, 2.9, 1.98/
629067,'GENSAL', 1,-4.03, -3.57, 5.82799, -2.0, 7.253, -0.6, -1.9397, 1.991, 5.32, -2.9, 2.9, 1.98/
890432,'GENSAL', 5,-4.03, -3.57, 5.82799, -2.0, 7.253, -0.6, -1.9397, 1.991, 5.32, -2.9, 2.9, 1.98/
